*HEADING
 Axisymmetric implant-screw biofilm, cond=DH, R0=4.000 (hoop confinement)
*NODE
 1, 4.000000, 0.000000
 2, 4.062500, 0.000000
 3, 4.125000, 0.000000
 4, 4.187500, 0.000000
 5, 4.250000, 0.000000
 6, 4.312500, 0.000000
 7, 4.375000, 0.000000
 8, 4.437500, 0.000000
 9, 4.500000, 0.000000
 10, 4.562500, 0.000000
 11, 4.625000, 0.000000
 12, 4.687500, 0.000000
 13, 4.750000, 0.000000
 14, 4.812500, 0.000000
 15, 4.875000, 0.000000
 16, 4.937500, 0.000000
 17, 5.000000, 0.000000
 18, 4.000000, 0.062500
 19, 4.062500, 0.062500
 20, 4.125000, 0.062500
** ... 133 like lines cut
*ELEMENT, TYPE=CAX4
 1, 1, 2, 19, 18
 2, 2, 3, 20, 19
 3, 3, 4, 21, 20
 4, 4, 5, 22, 21
 5, 5, 6, 23, 22
 6, 6, 7, 24, 23
 7, 7, 8, 25, 24
 8, 8, 9, 26, 25
 9, 9, 10, 27, 26
 10, 10, 11, 28, 27
 11, 11, 12, 29, 28
 12, 12, 13, 30, 29
 13, 13, 14, 31, 30
 14, 14, 15, 32, 31
 15, 15, 16, 33, 32
 16, 16, 17, 34, 33
 17, 18, 19, 36, 35
 18, 19, 20, 37, 36
 19, 20, 21, 38, 37
 20, 21, 22, 39, 38
** ... 108 like lines cut
*ELSET, ELSET=COL0
 1,17,33,49,65,81,97,113
*ELSET, ELSET=COL1
 2,18,34,50,66,82,98,114
*ELSET, ELSET=COL2
 3,19,35,51,67,83,99,115
*ELSET, ELSET=COL3
 4,20,36,52,68,84,100,116
*ELSET, ELSET=COL4
 5,21,37,53,69,85,101,117
*ELSET, ELSET=COL5
 6,22,38,54,70,86,102,118
*ELSET, ELSET=COL6
 7,23,39,55,71,87,103,119
*ELSET, ELSET=COL7
 8,24,40,56,72,88,104,120
*ELSET, ELSET=COL8
 9,25,41,57,73,89,105,121
*ELSET, ELSET=COL9
 10,26,42,58,74,90,106,122
*ELSET, ELSET=COL10
 11,27,43,59,75,91,107,123
*ELSET, ELSET=COL11
 12,28,44,60,76,92,108,124
*ELSET, ELSET=COL12
 13,29,45,61,77,93,109,125
*ELSET, ELSET=COL13
 14,30,46,62,78,94,110,126
*ELSET, ELSET=COL14
 15,31,47,63,79,95,111,127
*ELSET, ELSET=COL15
 16,32,48,64,80,96,112,128
*SOLID SECTION, ELSET=COL0, MATERIAL=MAT0
*SOLID SECTION, ELSET=COL1, MATERIAL=MAT1
*SOLID SECTION, ELSET=COL2, MATERIAL=MAT2
*SOLID SECTION, ELSET=COL3, MATERIAL=MAT3
*SOLID SECTION, ELSET=COL4, MATERIAL=MAT4
*SOLID SECTION, ELSET=COL5, MATERIAL=MAT5
*SOLID SECTION, ELSET=COL6, MATERIAL=MAT6
*SOLID SECTION, ELSET=COL7, MATERIAL=MAT7
*SOLID SECTION, ELSET=COL8, MATERIAL=MAT8
*SOLID SECTION, ELSET=COL9, MATERIAL=MAT9
*SOLID SECTION, ELSET=COL10, MATERIAL=MAT10
*SOLID SECTION, ELSET=COL11, MATERIAL=MAT11
*SOLID SECTION, ELSET=COL12, MATERIAL=MAT12
*SOLID SECTION, ELSET=COL13, MATERIAL=MAT13
*SOLID SECTION, ELSET=COL14, MATERIAL=MAT14
*SOLID SECTION, ELSET=COL15, MATERIAL=MAT15
*MATERIAL, NAME=MAT0
*ELASTIC
 5000.0, 0.450
*EXPANSION
 0.000000
*MATERIAL, NAME=MAT1
*ELASTIC
 5000.0, 0.450
*EXPANSION
 0.183380
*MATERIAL, NAME=MAT2
*ELASTIC
 5000.0, 0.450
*EXPANSION
 0.334136
*MATERIAL, NAME=MAT3
*ELASTIC
 5000.0, 0.450
*EXPANSION
 0.105326
*MATERIAL, NAME=MAT4
*ELASTIC
 5000.0, 0.450
*EXPANSION
 0.000000
*MATERIAL, NAME=MAT5
*ELASTIC
 5000.0, 0.450
*EXPANSION
 0.000000
*MATERIAL, NAME=MAT6
*ELASTIC
 5000.0, 0.450
*EXPANSION
 0.000000
*MATERIAL, NAME=MAT7
*ELASTIC
 5000.0, 0.450
*EXPANSION
 0.000000
*MATERIAL, NAME=MAT8
*ELASTIC
 5000.0, 0.450
*EXPANSION
 0.005008
*MATERIAL, NAME=MAT9
*ELASTIC
 5000.0, 0.450
*EXPANSION
 0.048387
*MATERIAL, NAME=MAT10
*ELASTIC
 5000.0, 0.450
*EXPANSION
 0.079940
*MATERIAL, NAME=MAT11
*ELASTIC
 5000.0, 0.450
*EXPANSION
 0.100756
*MATERIAL, NAME=MAT12
*ELASTIC
 5000.0, 0.450
*EXPANSION
 0.110607
*MATERIAL, NAME=MAT13
*ELASTIC
 5000.0, 0.450
*EXPANSION
 0.118148
*MATERIAL, NAME=MAT14
*ELASTIC
 5000.0, 0.450
*EXPANSION
 0.127163
*MATERIAL, NAME=MAT15
*ELASTIC
 5000.0, 0.450
*EXPANSION
 0.132706
*NSET, NSET=INNER
 1,18,35,52,69,86,103,120,137
*NSET, NSET=ZBOT
 1,2,3,4,5,6,7,8,9,10,11,12,13,14,15,16
 17
*NSET, NSET=ZTOP
 137,138,139,140,141,142,143,144,145,146,147,148,149,150,151,152
 153
*NSET, NSET=ALLN
 1,2,3,4,5,6,7,8,9,10,11,12,13,14,15,16
 17,18,19,20,21,22,23,24,25,26,27,28,29,30,31,32
 33,34,35,36,37,38,39,40,41,42,43,44,45,46,47,48
 49,50,51,52,53,54,55,56,57,58,59,60,61,62,63,64
 65,66,67,68,69,70,71,72,73,74,75,76,77,78,79,80
 81,82,83,84,85,86,87,88,89,90,91,92,93,94,95,96
 97,98,99,100,101,102,103,104,105,106,107,108,109,110,111,112
 113,114,115,116,117,118,119,120,121,122,123,124,125,126,127,128
 129,130,131,132,133,134,135,136,137,138,139,140,141,142,143,144
 145,146,147,148,149,150,151,152,153
*INITIAL CONDITIONS, TYPE=TEMPERATURE
 ALLN, 0.0
*BOUNDARY
 INNER, 1, 2
 ZBOT, 2, 2
 ZTOP, 2, 2
*STEP
 Axisymmetric confined growth -> hoop + radial interface stress
*STATIC
*TEMPERATURE
 ALLN, 1.0
*OUTPUT, FIELD
*NODE OUTPUT
 U
*ELEMENT OUTPUT, POSITION=CENTROID
 S, COORD
*END STEP
