*HEADING
 Biofilm bilayer: stiff growing crust on soft inert base -> wrinkling (A1)
*NODE
 1, 0.000000, 0.000000, 0.000000
 2, 0.166667, 0.000000, 0.000000
 3, 0.333333, 0.000000, 0.000000
 4, 0.500000, 0.000000, 0.000000
 5, 0.666667, 0.000000, 0.000000
 6, 0.833333, 0.000000, 0.000000
 7, 1.000000, 0.000000, 0.000000
 8, 1.166667, 0.000000, 0.000000
 9, 1.333333, 0.000000, 0.000000
 10, 1.500000, 0.000000, 0.000000
 11, 1.666667, 0.000000, 0.000000
 12, 1.833333, 0.000000, 0.000000
 13, 2.000000, 0.000000, 0.000000
 14, 2.166667, 0.000000, 0.000000
 15, 2.333333, 0.000000, 0.000000
 16, 2.500000, 0.000000, 0.000000
 17, 2.666667, 0.000000, 0.000000
 18, 2.833333, 0.000000, 0.000000
 19, 3.000000, 0.000000, 0.000000
 20, 3.166667, 0.000000, 0.000000
** ... 862 like lines cut
*ELEMENT, TYPE=C3D8, ELSET=ALLEL
 1, 1,2,51,50,99,100,149,148
 2, 2,3,52,51,100,101,150,149
 3, 3,4,53,52,101,102,151,150
 4, 4,5,54,53,102,103,152,151
 5, 5,6,55,54,103,104,153,152
 6, 6,7,56,55,104,105,154,153
 7, 7,8,57,56,105,106,155,154
 8, 8,9,58,57,106,107,156,155
 9, 9,10,59,58,107,108,157,156
 10, 10,11,60,59,108,109,158,157
 11, 11,12,61,60,109,110,159,158
 12, 12,13,62,61,110,111,160,159
 13, 13,14,63,62,111,112,161,160
 14, 14,15,64,63,112,113,162,161
 15, 15,16,65,64,113,114,163,162
 16, 16,17,66,65,114,115,164,163
 17, 17,18,67,66,115,116,165,164
 18, 18,19,68,67,116,117,166,165
 19, 19,20,69,68,117,118,167,166
 20, 20,21,70,69,118,119,168,167
** ... 364 like lines cut
*ELSET, ELSET=CRUST
 289,290,291,292,293,294,295,296,297,298,299,300
 301,302,303,304,305,306,307,308,309,310,311,312
 313,314,315,316,317,318,319,320,321,322,323,324
 325,326,327,328,329,330,331,332,333,334,335,336
 337,338,339,340,341,342,343,344,345,346,347,348
 349,350,351,352,353,354,355,356,357,358,359,360
 361,362,363,364,365,366,367,368,369,370,371,372
 373,374,375,376,377,378,379,380,381,382,383,384
*ELSET, ELSET=BASE
 1,2,3,4,5,6,7,8,9,10,11,12
 13,14,15,16,17,18,19,20,21,22,23,24
 25,26,27,28,29,30,31,32,33,34,35,36
 37,38,39,40,41,42,43,44,45,46,47,48
 49,50,51,52,53,54,55,56,57,58,59,60
 61,62,63,64,65,66,67,68,69,70,71,72
 73,74,75,76,77,78,79,80,81,82,83,84
 85,86,87,88,89,90,91,92,93,94,95,96
 97,98,99,100,101,102,103,104,105,106,107,108
 109,110,111,112,113,114,115,116,117,118,119,120
 121,122,123,124,125,126,127,128,129,130,131,132
 133,134,135,136,137,138,139,140,141,142,143,144
 145,146,147,148,149,150,151,152,153,154,155,156
 157,158,159,160,161,162,163,164,165,166,167,168
 169,170,171,172,173,174,175,176,177,178,179,180
 181,182,183,184,185,186,187,188,189,190,191,192
 193,194,195,196,197,198,199,200,201,202,203,204
 205,206,207,208,209,210,211,212,213,214,215,216
 217,218,219,220,221,222,223,224,225,226,227,228
 229,230,231,232,233,234,235,236,237,238,239,240
** ... 4 like lines cut
*SOLID SECTION, ELSET=CRUST, MATERIAL=CRUSTMAT
*MATERIAL, NAME=CRUSTMAT
*USER MATERIAL, CONSTANTS=2
 50000, 0.45
*DEPVAR
 1
*SOLID SECTION, ELSET=BASE, MATERIAL=BASEMAT
*MATERIAL, NAME=BASEMAT
*ELASTIC
 2000, 0.45
*NSET, NSET=XSYM
 1,50,99,148,197,246,295,344,393,442,491,540
 589,638,687,736,785,834
*NSET, NSET=YSYM
 1,2,3,4,5,6,7,8,9,10,11,12
 13,14,15,16,17,18,19,20,21,22,23,24
 25,26,27,28,29,30,31,32,33,34,35,36
 37,38,39,40,41,42,43,44,45,46,47,48
 49,50,51,52,53,54,55,56,57,58,59,60
 61,62,63,64,65,66,67,68,69,70,71,72
 73,74,75,76,77,78,79,80,81,82,83,84
 85,86,87,88,89,90,91,92,93,94,95,96
 97,98,99,100,101,102,103,104,105,106,107,108
 109,110,111,112,113,114,115,116,117,118,119,120
 121,122,123,124,125,126,127,128,129,130,131,132
 133,134,135,136,137,138,139,140,141,142,143,144
 145,146,147,148,149,150,151,152,153,154,155,156
 157,158,159,160,161,162,163,164,165,166,167,168
 169,170,171,172,173,174,175,176,177,178,179,180
 181,182,183,184,185,186,187,188,189,190,191,192
 193,194,195,196,197,198,199,200,201,202,203,204
 205,206,207,208,209,210,211,212,213,214,215,216
 217,218,219,220,221,222,223,224,225,226,227,228
 229,230,231,232,233,234,235,236,237,238,239,240
** ... 54 like lines cut
*NSET, NSET=ZBOT
 1,2,3,4,5,6,7,8,9,10,11,12
 13,14,15,16,17,18,19,20,21,22,23,24
 25,26,27,28,29,30,31,32,33,34,35,36
 37,38,39,40,41,42,43,44,45,46,47,48
 49,50,51,52,53,54,55,56,57,58,59,60
 61,62,63,64,65,66,67,68,69,70,71,72
 73,74,75,76,77,78,79,80,81,82,83,84
 85,86,87,88,89,90,91,92,93,94,95,96
 97,98
*BOUNDARY
 XSYM, 1, 1
 YSYM, 2, 2
 ZBOT, 1, 3
*STEP, NLGEOM=YES, INC=1000
 differential growth of crust -> wrinkling
*STATIC, STABILIZE=0.002, ALLSDTOL=0.05, CONTINUE=NO
 0.01, 1.0, 1.0E-8, 0.02
*OUTPUT, FIELD, FREQUENCY=1
*NODE OUTPUT
 U
*ELEMENT OUTPUT, POSITION=CENTROID
 S
*END STEP
