*HEADING
 Biofilm film strip on COHESIVE base (12x1x8 C3D8 + 12 COH3D8) -> delamination
*NODE
 1, 0.000000, 0.000000, 0.000000
 2, 0.333333, 0.000000, 0.000000
 3, 0.666667, 0.000000, 0.000000
 4, 1.000000, 0.000000, 0.000000
 5, 1.333333, 0.000000, 0.000000
 6, 1.666667, 0.000000, 0.000000
 7, 2.000000, 0.000000, 0.000000
 8, 2.333333, 0.000000, 0.000000
 9, 2.666667, 0.000000, 0.000000
 10, 3.000000, 0.000000, 0.000000
 11, 3.333333, 0.000000, 0.000000
 12, 3.666667, 0.000000, 0.000000
 13, 4.000000, 0.000000, 0.000000
 14, 0.000000, 1.000000, 0.000000
 15, 0.333333, 1.000000, 0.000000
 16, 0.666667, 1.000000, 0.000000
 17, 1.000000, 1.000000, 0.000000
 18, 1.333333, 1.000000, 0.000000
 19, 1.666667, 1.000000, 0.000000
 20, 2.000000, 1.000000, 0.000000
** ... 240 like lines cut
*ELEMENT, TYPE=C3D8, ELSET=FILM
 1, 1,2,15,14,27,28,41,40
 2, 2,3,16,15,28,29,42,41
 3, 3,4,17,16,29,30,43,42
 4, 4,5,18,17,30,31,44,43
 5, 5,6,19,18,31,32,45,44
 6, 6,7,20,19,32,33,46,45
 7, 7,8,21,20,33,34,47,46
 8, 8,9,22,21,34,35,48,47
 9, 9,10,23,22,35,36,49,48
 10, 10,11,24,23,36,37,50,49
 11, 11,12,25,24,37,38,51,50
 12, 12,13,26,25,38,39,52,51
 13, 27,28,41,40,53,54,67,66
 14, 28,29,42,41,54,55,68,67
 15, 29,30,43,42,55,56,69,68
 16, 30,31,44,43,56,57,70,69
 17, 31,32,45,44,57,58,71,70
 18, 32,33,46,45,58,59,72,71
 19, 33,34,47,46,59,60,73,72
 20, 34,35,48,47,60,61,74,73
** ... 76 like lines cut
*ELEMENT, TYPE=COH3D8, ELSET=COH
 97, 334,335,348,347,1,2,15,14
 98, 335,336,349,348,2,3,16,15
 99, 336,337,350,349,3,4,17,16
 100, 337,338,351,350,4,5,18,17
 101, 338,339,352,351,5,6,19,18
 102, 339,340,353,352,6,7,20,19
 103, 340,341,354,353,7,8,21,20
 104, 341,342,355,354,8,9,22,21
 105, 342,343,356,355,9,10,23,22
 106, 343,344,357,356,10,11,24,23
 107, 344,345,358,357,11,12,25,24
 108, 345,346,359,358,12,13,26,25
*ELSET, ELSET=COH_X, GENERATE
 97, 108, 1
*SOLID SECTION, ELSET=FILM, MATERIAL=BIOFILM
*MATERIAL, NAME=BIOFILM
*USER MATERIAL, CONSTANTS=2
 5000., 0.45
*DEPVAR
 1
*COHESIVE SECTION, ELSET=COH, MATERIAL=COHMAT, RESPONSE=TRACTION SEPARATION
 1.0
*MATERIAL, NAME=COHMAT
*ELASTIC, TYPE=TRACTION
 50000, 50000, 50000
*DAMAGE INITIATION, CRITERION=QUADS
 120, 120, 120
*DAMAGE EVOLUTION, TYPE=ENERGY, MIXED MODE BEHAVIOR=BK, POWER=1.45
 4, 4, 4
*DAMAGE STABILIZATION
 1.0E-4
*NSET, NSET=XSYM
 1,14,27,40,53,66,79,92,105,118,131,144
 157,170,183,196,209,222
*NSET, NSET=YSYM
 1,2,3,4,5,6,7,8,9,10,11,12
 13,14,15,16,17,18,19,20,21,22,23,24
 25,26,27,28,29,30,31,32,33,34,35,36
 37,38,39,40,41,42,43,44,45,46,47,48
 49,50,51,52,53,54,55,56,57,58,59,60
 61,62,63,64,65,66,67,68,69,70,71,72
 73,74,75,76,77,78,79,80,81,82,83,84
 85,86,87,88,89,90,91,92,93,94,95,96
 97,98,99,100,101,102,103,104,105,106,107,108
 109,110,111,112,113,114,115,116,117,118,119,120
 121,122,123,124,125,126,127,128,129,130,131,132
 133,134,135,136,137,138,139,140,141,142,143,144
 145,146,147,148,149,150,151,152,153,154,155,156
 157,158,159,160,161,162,163,164,165,166,167,168
 169,170,171,172,173,174,175,176,177,178,179,180
 181,182,183,184,185,186,187,188,189,190,191,192
 193,194,195,196,197,198,199,200,201,202,203,204
 205,206,207,208,209,210,211,212,213,214,215,216
 217,218,219,220,221,222,223,224,225,226,227,228
 229,230,231,232,233,234,334,335,336,337,338,339
 340,341,342,343,344,345,346,347,348,349,350,351
 352,353,354,355,356,357,358,359
*NSET, NSET=CBOT
 334,335,336,337,338,339,340,341,342,343,344,345
 346,347,348,349,350,351,352,353,354,355,356,357
 358,359
*BOUNDARY
 XSYM, 1, 1
 YSYM, 2, 2
 CBOT, 1, 3
*STEP, NLGEOM=YES, INC=500
 Depth-graded growth on cohesive base -> edge delamination
*STATIC
 0.02, 1.0, 1.0E-5, 0.02
*OUTPUT, FIELD
*NODE OUTPUT
 U
*ELEMENT OUTPUT, POSITION=CENTROID
 S, E, SDV, SDEG, COORD
*OUTPUT, HISTORY, VARIABLE=PRESELECT
*END STEP
