*HEADING
 Implant-thread biofilm eigenstrain deck: cond=DH profile=thread amp=0.180 (CPE4, no UMAT)
*NODE
 1, 0.000000, 0.000000
 2, 0.083333, 0.012058
 3, 0.166667, 0.045000
 4, 0.250000, 0.090000
 5, 0.333333, 0.135000
 6, 0.416667, 0.167942
 7, 0.500000, 0.180000
 8, 0.583333, 0.167942
 9, 0.666667, 0.135000
 10, 0.750000, 0.090000
 11, 0.833333, 0.045000
 12, 0.916667, 0.012058
 13, 1.000000, 0.000000
 14, 1.083333, 0.012058
 15, 1.166667, 0.045000
 16, 1.250000, 0.090000
 17, 1.333333, 0.135000
 18, 1.416667, 0.167942
 19, 1.500000, 0.180000
 20, 1.583333, 0.167942
** ... 239 like lines cut
*ELEMENT, TYPE=CPE4
 1, 1, 2, 39, 38
 2, 2, 3, 40, 39
 3, 3, 4, 41, 40
 4, 4, 5, 42, 41
 5, 5, 6, 43, 42
 6, 6, 7, 44, 43
 7, 7, 8, 45, 44
 8, 8, 9, 46, 45
 9, 9, 10, 47, 46
 10, 10, 11, 48, 47
 11, 11, 12, 49, 48
 12, 12, 13, 50, 49
 13, 13, 14, 51, 50
 14, 14, 15, 52, 51
 15, 15, 16, 53, 52
 16, 16, 17, 54, 53
 17, 17, 18, 55, 54
 18, 18, 19, 56, 55
 19, 19, 20, 57, 56
 20, 20, 21, 58, 57
** ... 196 like lines cut
*ELSET, ELSET=ROW0
 1,2,3,4,5,6,7,8,9,10,11,12,13,14,15,16
 17,18,19,20,21,22,23,24,25,26,27,28,29,30,31,32
 33,34,35,36
*ELSET, ELSET=ROW1
 37,38,39,40,41,42,43,44,45,46,47,48,49,50,51,52
 53,54,55,56,57,58,59,60,61,62,63,64,65,66,67,68
 69,70,71,72
*ELSET, ELSET=ROW2
 73,74,75,76,77,78,79,80,81,82,83,84,85,86,87,88
 89,90,91,92,93,94,95,96,97,98,99,100,101,102,103,104
 105,106,107,108
*ELSET, ELSET=ROW3
 109,110,111,112,113,114,115,116,117,118,119,120,121,122,123,124
 125,126,127,128,129,130,131,132,133,134,135,136,137,138,139,140
 141,142,143,144
*ELSET, ELSET=ROW4
 145,146,147,148,149,150,151,152,153,154,155,156,157,158,159,160
 161,162,163,164,165,166,167,168,169,170,171,172,173,174,175,176
 177,178,179,180
*ELSET, ELSET=ROW5
 181,182,183,184,185,186,187,188,189,190,191,192,193,194,195,196
 197,198,199,200,201,202,203,204,205,206,207,208,209,210,211,212
 213,214,215,216
*ORIENTATION, NAME=ORI, SYSTEM=RECTANGULAR, DEFINITION=COORDINATES
 1.0, 0.0, 0.0, 0.0, 1.0, 0.0
 3, 0.0
*SOLID SECTION, ELSET=ROW0, MATERIAL=MAT0, ORIENTATION=ORI
*SOLID SECTION, ELSET=ROW1, MATERIAL=MAT1, ORIENTATION=ORI
*SOLID SECTION, ELSET=ROW2, MATERIAL=MAT2, ORIENTATION=ORI
*SOLID SECTION, ELSET=ROW3, MATERIAL=MAT3, ORIENTATION=ORI
*SOLID SECTION, ELSET=ROW4, MATERIAL=MAT4, ORIENTATION=ORI
*SOLID SECTION, ELSET=ROW5, MATERIAL=MAT5, ORIENTATION=ORI
*MATERIAL, NAME=MAT0
*ELASTIC
 5000.0, 0.450
*EXPANSION, TYPE=ORTHO, ZERO=0.0
 0.063270, 0.063270, 0.063270
*MATERIAL, NAME=MAT1
*ELASTIC
 5000.0, 0.450
*EXPANSION, TYPE=ORTHO, ZERO=0.0
 0.000000, 0.000000, 0.000000
*MATERIAL, NAME=MAT2
*ELASTIC
 5000.0, 0.450
*EXPANSION, TYPE=ORTHO, ZERO=0.0
 0.000000, 0.000000, 0.000000
*MATERIAL, NAME=MAT3
*ELASTIC
 5000.0, 0.450
*EXPANSION, TYPE=ORTHO, ZERO=0.0
 0.041648, 0.041648, 0.041648
*MATERIAL, NAME=MAT4
*ELASTIC
 5000.0, 0.450
*EXPANSION, TYPE=ORTHO, ZERO=0.0
 0.105379, 0.105379, 0.105379
*MATERIAL, NAME=MAT5
*ELASTIC
 5000.0, 0.450
*EXPANSION, TYPE=ORTHO, ZERO=0.0
 0.128567, 0.128567, 0.128567
*NSET, NSET=BOTTOM
 1,2,3,4,5,6,7,8,9,10,11,12,13,14,15,16
 17,18,19,20,21,22,23,24,25,26,27,28,29,30,31,32
 33,34,35,36,37
*NSET, NSET=LEFT
 1,38,75,112,149,186,223
*NSET, NSET=RIGHT
 37,74,111,148,185,222,259
*NSET, NSET=ALLN
 1,2,3,4,5,6,7,8,9,10,11,12,13,14,15,16
 17,18,19,20,21,22,23,24,25,26,27,28,29,30,31,32
 33,34,35,36,37,38,39,40,41,42,43,44,45,46,47,48
 49,50,51,52,53,54,55,56,57,58,59,60,61,62,63,64
 65,66,67,68,69,70,71,72,73,74,75,76,77,78,79,80
 81,82,83,84,85,86,87,88,89,90,91,92,93,94,95,96
 97,98,99,100,101,102,103,104,105,106,107,108,109,110,111,112
 113,114,115,116,117,118,119,120,121,122,123,124,125,126,127,128
 129,130,131,132,133,134,135,136,137,138,139,140,141,142,143,144
 145,146,147,148,149,150,151,152,153,154,155,156,157,158,159,160
 161,162,163,164,165,166,167,168,169,170,171,172,173,174,175,176
 177,178,179,180,181,182,183,184,185,186,187,188,189,190,191,192
 193,194,195,196,197,198,199,200,201,202,203,204,205,206,207,208
 209,210,211,212,213,214,215,216,217,218,219,220,221,222,223,224
 225,226,227,228,229,230,231,232,233,234,235,236,237,238,239,240
 241,242,243,244,245,246,247,248,249,250,251,252,253,254,255,256
 257,258,259
*INITIAL CONDITIONS, TYPE=TEMPERATURE
 ALLN, 0.0
*BOUNDARY
 BOTTOM, 1, 2
*STEP
 Confined depth growth via thermal eigenstrain -> interface residual stress
*STATIC
*TEMPERATURE
 ALLN, 1.0
*OUTPUT, FIELD
*NODE OUTPUT
 U
*ELEMENT OUTPUT, POSITION=CENTROID
 S, COORD
*END STEP
