*HEADING
 Implant-thread biofilm eigenstrain deck: cond=DH profile=flat amp=0.000 (CPE4, no UMAT)
*NODE
 1, 0.000000, 0.000000
 2, 0.041667, 0.000000
 3, 0.083333, 0.000000
 4, 0.125000, 0.000000
 5, 0.166667, 0.000000
 6, 0.208333, 0.000000
 7, 0.250000, 0.000000
 8, 0.291667, 0.000000
 9, 0.333333, 0.000000
 10, 0.375000, 0.000000
 11, 0.416667, 0.000000
 12, 0.458333, 0.000000
 13, 0.500000, 0.000000
 14, 0.541667, 0.000000
 15, 0.583333, 0.000000
 16, 0.625000, 0.000000
 17, 0.666667, 0.000000
 18, 0.708333, 0.000000
 19, 0.750000, 0.000000
 20, 0.791667, 0.000000
** ... 929 like lines cut
*ELEMENT, TYPE=CPE4
 1, 1, 2, 75, 74
 2, 2, 3, 76, 75
 3, 3, 4, 77, 76
 4, 4, 5, 78, 77
 5, 5, 6, 79, 78
 6, 6, 7, 80, 79
 7, 7, 8, 81, 80
 8, 8, 9, 82, 81
 9, 9, 10, 83, 82
 10, 10, 11, 84, 83
 11, 11, 12, 85, 84
 12, 12, 13, 86, 85
 13, 13, 14, 87, 86
 14, 14, 15, 88, 87
 15, 15, 16, 89, 88
 16, 16, 17, 90, 89
 17, 17, 18, 91, 90
 18, 18, 19, 92, 91
 19, 19, 20, 93, 92
 20, 20, 21, 94, 93
** ... 844 like lines cut
*ELSET, ELSET=ROW0
 1,2,3,4,5,6,7,8,9,10,11,12,13,14,15,16
 17,18,19,20,21,22,23,24,25,26,27,28,29,30,31,32
 33,34,35,36,37,38,39,40,41,42,43,44,45,46,47,48
 49,50,51,52,53,54,55,56,57,58,59,60,61,62,63,64
 65,66,67,68,69,70,71,72
*ELSET, ELSET=ROW1
 73,74,75,76,77,78,79,80,81,82,83,84,85,86,87,88
 89,90,91,92,93,94,95,96,97,98,99,100,101,102,103,104
 105,106,107,108,109,110,111,112,113,114,115,116,117,118,119,120
 121,122,123,124,125,126,127,128,129,130,131,132,133,134,135,136
 137,138,139,140,141,142,143,144
*ELSET, ELSET=ROW2
 145,146,147,148,149,150,151,152,153,154,155,156,157,158,159,160
 161,162,163,164,165,166,167,168,169,170,171,172,173,174,175,176
 177,178,179,180,181,182,183,184,185,186,187,188,189,190,191,192
 193,194,195,196,197,198,199,200,201,202,203,204,205,206,207,208
 209,210,211,212,213,214,215,216
*ELSET, ELSET=ROW3
 217,218,219,220,221,222,223,224,225,226,227,228,229,230,231,232
 233,234,235,236,237,238,239,240,241,242,243,244,245,246,247,248
 249,250,251,252,253,254,255,256,257,258,259,260,261,262,263,264
 265,266,267,268,269,270,271,272,273,274,275,276,277,278,279,280
 281,282,283,284,285,286,287,288
*ELSET, ELSET=ROW4
 289,290,291,292,293,294,295,296,297,298,299,300,301,302,303,304
 305,306,307,308,309,310,311,312,313,314,315,316,317,318,319,320
 321,322,323,324,325,326,327,328,329,330,331,332,333,334,335,336
 337,338,339,340,341,342,343,344,345,346,347,348,349,350,351,352
 353,354,355,356,357,358,359,360
*ELSET, ELSET=ROW5
 361,362,363,364,365,366,367,368,369,370,371,372,373,374,375,376
 377,378,379,380,381,382,383,384,385,386,387,388,389,390,391,392
 393,394,395,396,397,398,399,400,401,402,403,404,405,406,407,408
 409,410,411,412,413,414,415,416,417,418,419,420,421,422,423,424
 425,426,427,428,429,430,431,432
*ELSET, ELSET=ROW6
 433,434,435,436,437,438,439,440,441,442,443,444,445,446,447,448
 449,450,451,452,453,454,455,456,457,458,459,460,461,462,463,464
 465,466,467,468,469,470,471,472,473,474,475,476,477,478,479,480
 481,482,483,484,485,486,487,488,489,490,491,492,493,494,495,496
 497,498,499,500,501,502,503,504
*ELSET, ELSET=ROW7
 505,506,507,508,509,510,511,512,513,514,515,516,517,518,519,520
 521,522,523,524,525,526,527,528,529,530,531,532,533,534,535,536
 537,538,539,540,541,542,543,544,545,546,547,548,549,550,551,552
 553,554,555,556,557,558,559,560,561,562,563,564,565,566,567,568
 569,570,571,572,573,574,575,576
*ELSET, ELSET=ROW8
 577,578,579,580,581,582,583,584,585,586,587,588,589,590,591,592
 593,594,595,596,597,598,599,600,601,602,603,604,605,606,607,608
 609,610,611,612,613,614,615,616,617,618,619,620,621,622,623,624
 625,626,627,628,629,630,631,632,633,634,635,636,637,638,639,640
 641,642,643,644,645,646,647,648
*ELSET, ELSET=ROW9
 649,650,651,652,653,654,655,656,657,658,659,660,661,662,663,664
 665,666,667,668,669,670,671,672,673,674,675,676,677,678,679,680
 681,682,683,684,685,686,687,688,689,690,691,692,693,694,695,696
 697,698,699,700,701,702,703,704,705,706,707,708,709,710,711,712
 713,714,715,716,717,718,719,720
*ELSET, ELSET=ROW10
 721,722,723,724,725,726,727,728,729,730,731,732,733,734,735,736
 737,738,739,740,741,742,743,744,745,746,747,748,749,750,751,752
 753,754,755,756,757,758,759,760,761,762,763,764,765,766,767,768
 769,770,771,772,773,774,775,776,777,778,779,780,781,782,783,784
 785,786,787,788,789,790,791,792
*ELSET, ELSET=ROW11
 793,794,795,796,797,798,799,800,801,802,803,804,805,806,807,808
 809,810,811,812,813,814,815,816,817,818,819,820,821,822,823,824
 825,826,827,828,829,830,831,832,833,834,835,836,837,838,839,840
 841,842,843,844,845,846,847,848,849,850,851,852,853,854,855,856
 857,858,859,860,861,862,863,864
*ORIENTATION, NAME=ORI, SYSTEM=RECTANGULAR, DEFINITION=COORDINATES
 1.0, 0.0, 0.0, 0.0, 1.0, 0.0
 3, 0.0
*SOLID SECTION, ELSET=ROW0, MATERIAL=MAT0, ORIENTATION=ORI
*SOLID SECTION, ELSET=ROW1, MATERIAL=MAT1, ORIENTATION=ORI
*SOLID SECTION, ELSET=ROW2, MATERIAL=MAT2, ORIENTATION=ORI
*SOLID SECTION, ELSET=ROW3, MATERIAL=MAT3, ORIENTATION=ORI
*SOLID SECTION, ELSET=ROW4, MATERIAL=MAT4, ORIENTATION=ORI
*SOLID SECTION, ELSET=ROW5, MATERIAL=MAT5, ORIENTATION=ORI
*SOLID SECTION, ELSET=ROW6, MATERIAL=MAT6, ORIENTATION=ORI
*SOLID SECTION, ELSET=ROW7, MATERIAL=MAT7, ORIENTATION=ORI
*SOLID SECTION, ELSET=ROW8, MATERIAL=MAT8, ORIENTATION=ORI
*SOLID SECTION, ELSET=ROW9, MATERIAL=MAT9, ORIENTATION=ORI
*SOLID SECTION, ELSET=ROW10, MATERIAL=MAT10, ORIENTATION=ORI
*SOLID SECTION, ELSET=ROW11, MATERIAL=MAT11, ORIENTATION=ORI
*MATERIAL, NAME=MAT0
*ELASTIC
 5000.0, 0.450
*EXPANSION, TYPE=ORTHO, ZERO=0.0
 0.000000, 0.000000, 0.000000
*MATERIAL, NAME=MAT1
*ELASTIC
 5000.0, 0.450
*EXPANSION, TYPE=ORTHO, ZERO=0.0
 0.330638, 0.330638, 0.330638
*MATERIAL, NAME=MAT2
*ELASTIC
 5000.0, 0.450
*EXPANSION, TYPE=ORTHO, ZERO=0.0
 0.166538, 0.166538, 0.166538
*MATERIAL, NAME=MAT3
*ELASTIC
 5000.0, 0.450
*EXPANSION, TYPE=ORTHO, ZERO=0.0
 0.000000, 0.000000, 0.000000
*MATERIAL, NAME=MAT4
*ELASTIC
 5000.0, 0.450
*EXPANSION, TYPE=ORTHO, ZERO=0.0
 0.000000, 0.000000, 0.000000
*MATERIAL, NAME=MAT5
*ELASTIC
 5000.0, 0.450
*EXPANSION, TYPE=ORTHO, ZERO=0.0
 0.000000, 0.000000, 0.000000
*MATERIAL, NAME=MAT6
*ELASTIC
 5000.0, 0.450
*EXPANSION, TYPE=ORTHO, ZERO=0.0
 0.012704, 0.012704, 0.012704
*MATERIAL, NAME=MAT7
*ELASTIC
 5000.0, 0.450
*EXPANSION, TYPE=ORTHO, ZERO=0.0
 0.066013, 0.066013, 0.066013
*MATERIAL, NAME=MAT8
*ELASTIC
 5000.0, 0.450
*EXPANSION, TYPE=ORTHO, ZERO=0.0
 0.098268, 0.098268, 0.098268
*MATERIAL, NAME=MAT9
*ELASTIC
 5000.0, 0.450
*EXPANSION, TYPE=ORTHO, ZERO=0.0
 0.112092, 0.112092, 0.112092
*MATERIAL, NAME=MAT10
*ELASTIC
 5000.0, 0.450
*EXPANSION, TYPE=ORTHO, ZERO=0.0
 0.122926, 0.122926, 0.122926
*MATERIAL, NAME=MAT11
*ELASTIC
 5000.0, 0.450
*EXPANSION, TYPE=ORTHO, ZERO=0.0
 0.132669, 0.132669, 0.132669
*NSET, NSET=BOTTOM
 1,2,3,4,5,6,7,8,9,10,11,12,13,14,15,16
 17,18,19,20,21,22,23,24,25,26,27,28,29,30,31,32
 33,34,35,36,37,38,39,40,41,42,43,44,45,46,47,48
 49,50,51,52,53,54,55,56,57,58,59,60,61,62,63,64
 65,66,67,68,69,70,71,72,73
*NSET, NSET=LEFT
 1,74,147,220,293,366,439,512,585,658,731,804,877
*NSET, NSET=RIGHT
 73,146,219,292,365,438,511,584,657,730,803,876,949
*NSET, NSET=ALLN
 1,2,3,4,5,6,7,8,9,10,11,12,13,14,15,16
 17,18,19,20,21,22,23,24,25,26,27,28,29,30,31,32
 33,34,35,36,37,38,39,40,41,42,43,44,45,46,47,48
 49,50,51,52,53,54,55,56,57,58,59,60,61,62,63,64
 65,66,67,68,69,70,71,72,73,74,75,76,77,78,79,80
 81,82,83,84,85,86,87,88,89,90,91,92,93,94,95,96
 97,98,99,100,101,102,103,104,105,106,107,108,109,110,111,112
 113,114,115,116,117,118,119,120,121,122,123,124,125,126,127,128
 129,130,131,132,133,134,135,136,137,138,139,140,141,142,143,144
 145,146,147,148,149,150,151,152,153,154,155,156,157,158,159,160
 161,162,163,164,165,166,167,168,169,170,171,172,173,174,175,176
 177,178,179,180,181,182,183,184,185,186,187,188,189,190,191,192
 193,194,195,196,197,198,199,200,201,202,203,204,205,206,207,208
 209,210,211,212,213,214,215,216,217,218,219,220,221,222,223,224
 225,226,227,228,229,230,231,232,233,234,235,236,237,238,239,240
 241,242,243,244,245,246,247,248,249,250,251,252,253,254,255,256
 257,258,259,260,261,262,263,264,265,266,267,268,269,270,271,272
 273,274,275,276,277,278,279,280,281,282,283,284,285,286,287,288
 289,290,291,292,293,294,295,296,297,298,299,300,301,302,303,304
 305,306,307,308,309,310,311,312,313,314,315,316,317,318,319,320
** ... 40 like lines cut
*INITIAL CONDITIONS, TYPE=TEMPERATURE
 ALLN, 0.0
*BOUNDARY
 BOTTOM, 1, 2
*STEP
 Confined depth growth via thermal eigenstrain -> interface residual stress
*STATIC
*TEMPERATURE
 ALLN, 1.0
*OUTPUT, FIELD
*NODE OUTPUT
 U
*ELEMENT OUTPUT, POSITION=CENTROID
 S, COORD
*END STEP
