*HEADING
 3-D helical implant-screw biofilm, cond=DH, 3 turns, occlusal=0 flowshear=2
*NODE
 1, 2.000000, 0.000000, 0.000000
 2, 1.983653, 0.261153, 0.000000
 3, 1.934814, 0.518432, 0.000000
 4, 1.854088, 0.767989, 0.000000
 5, 1.742493, 1.006029, 0.000000
 6, 1.601462, 1.228845, 0.000000
 7, 1.432853, 1.432853, 0.000000
 8, 1.238958, 1.614642, 0.000000
 9, 1.022500, 1.771022, 0.000000
 10, 0.786628, 1.899088, 0.000000
 11, 0.534903, 1.996285, 0.000000
 12, 0.271266, 2.060473, 0.000000
 13, 0.000000, 2.090000, 0.000000
 14, -0.274333, 2.083767, 0.000000
 15, -0.546961, 2.041285, 0.000000
 16, -0.812989, 1.962728, 0.000000
 17, -1.067500, 1.848964, 0.000000
 18, -1.305665, 1.701575, 0.000000
 19, -1.522853, 1.522853, 0.000000
 20, -1.714755, 1.315778, 0.000000
** ... 14620 like lines cut
*ELEMENT, TYPE=C3D8, ELSET=FILM
 1, 1,49,50,2,241,289,290,242
 2, 2,50,51,3,242,290,291,243
 3, 3,51,52,4,243,291,292,244
 4, 4,52,53,5,244,292,293,245
 5, 5,53,54,6,245,293,294,246
 6, 6,54,55,7,246,294,295,247
 7, 7,55,56,8,247,295,296,248
 8, 8,56,57,9,248,296,297,249
 9, 9,57,58,10,249,297,298,250
 10, 10,58,59,11,250,298,299,251
 11, 11,59,60,12,251,299,300,252
 12, 12,60,61,13,252,300,301,253
 13, 13,61,62,14,253,301,302,254
 14, 14,62,63,15,254,302,303,255
 15, 15,63,64,16,255,303,304,256
 16, 16,64,65,17,256,304,305,257
 17, 17,65,66,18,257,305,306,258
 18, 18,66,67,19,258,306,307,259
 19, 19,67,68,20,259,307,308,260
 20, 20,68,69,21,260,308,309,261
** ... 11500 like lines cut
*ELSET, ELSET=RLAY0
 1,2,3,4,5,6,7,8,9,10,11,12,13,14,15,16
 17,18,19,20,21,22,23,24,25,26,27,28,29,30,31,32
 33,34,35,36,37,38,39,40,41,42,43,44,45,46,47,48
 193,194,195,196,197,198,199,200,201,202,203,204,205,206,207,208
 209,210,211,212,213,214,215,216,217,218,219,220,221,222,223,224
 225,226,227,228,229,230,231,232,233,234,235,236,237,238,239,240
 385,386,387,388,389,390,391,392,393,394,395,396,397,398,399,400
 401,402,403,404,405,406,407,408,409,410,411,412,413,414,415,416
 417,418,419,420,421,422,423,424,425,426,427,428,429,430,431,432
 577,578,579,580,581,582,583,584,585,586,587,588,589,590,591,592
 593,594,595,596,597,598,599,600,601,602,603,604,605,606,607,608
 609,610,611,612,613,614,615,616,617,618,619,620,621,622,623,624
 769,770,771,772,773,774,775,776,777,778,779,780,781,782,783,784
 785,786,787,788,789,790,791,792,793,794,795,796,797,798,799,800
 801,802,803,804,805,806,807,808,809,810,811,812,813,814,815,816
 961,962,963,964,965,966,967,968,969,970,971,972,973,974,975,976
 977,978,979,980,981,982,983,984,985,986,987,988,989,990,991,992
 993,994,995,996,997,998,999,1000,1001,1002,1003,1004,1005,1006,1007,1008
 1153,1154,1155,1156,1157,1158,1159,1160,1161,1162,1163,1164,1165,1166,1167,1168
 1169,1170,1171,1172,1173,1174,1175,1176,1177,1178,1179,1180,1181,1182,1183,1184
** ... 160 like lines cut
*ELSET, ELSET=RLAY1
 49,50,51,52,53,54,55,56,57,58,59,60,61,62,63,64
 65,66,67,68,69,70,71,72,73,74,75,76,77,78,79,80
 81,82,83,84,85,86,87,88,89,90,91,92,93,94,95,96
 241,242,243,244,245,246,247,248,249,250,251,252,253,254,255,256
 257,258,259,260,261,262,263,264,265,266,267,268,269,270,271,272
 273,274,275,276,277,278,279,280,281,282,283,284,285,286,287,288
 433,434,435,436,437,438,439,440,441,442,443,444,445,446,447,448
 449,450,451,452,453,454,455,456,457,458,459,460,461,462,463,464
 465,466,467,468,469,470,471,472,473,474,475,476,477,478,479,480
 625,626,627,628,629,630,631,632,633,634,635,636,637,638,639,640
 641,642,643,644,645,646,647,648,649,650,651,652,653,654,655,656
 657,658,659,660,661,662,663,664,665,666,667,668,669,670,671,672
 817,818,819,820,821,822,823,824,825,826,827,828,829,830,831,832
 833,834,835,836,837,838,839,840,841,842,843,844,845,846,847,848
 849,850,851,852,853,854,855,856,857,858,859,860,861,862,863,864
 1009,1010,1011,1012,1013,1014,1015,1016,1017,1018,1019,1020,1021,1022,1023,1024
 1025,1026,1027,1028,1029,1030,1031,1032,1033,1034,1035,1036,1037,1038,1039,1040
 1041,1042,1043,1044,1045,1046,1047,1048,1049,1050,1051,1052,1053,1054,1055,1056
 1201,1202,1203,1204,1205,1206,1207,1208,1209,1210,1211,1212,1213,1214,1215,1216
 1217,1218,1219,1220,1221,1222,1223,1224,1225,1226,1227,1228,1229,1230,1231,1232
** ... 160 like lines cut
*ELSET, ELSET=RLAY2
 97,98,99,100,101,102,103,104,105,106,107,108,109,110,111,112
 113,114,115,116,117,118,119,120,121,122,123,124,125,126,127,128
 129,130,131,132,133,134,135,136,137,138,139,140,141,142,143,144
 289,290,291,292,293,294,295,296,297,298,299,300,301,302,303,304
 305,306,307,308,309,310,311,312,313,314,315,316,317,318,319,320
 321,322,323,324,325,326,327,328,329,330,331,332,333,334,335,336
 481,482,483,484,485,486,487,488,489,490,491,492,493,494,495,496
 497,498,499,500,501,502,503,504,505,506,507,508,509,510,511,512
 513,514,515,516,517,518,519,520,521,522,523,524,525,526,527,528
 673,674,675,676,677,678,679,680,681,682,683,684,685,686,687,688
 689,690,691,692,693,694,695,696,697,698,699,700,701,702,703,704
 705,706,707,708,709,710,711,712,713,714,715,716,717,718,719,720
 865,866,867,868,869,870,871,872,873,874,875,876,877,878,879,880
 881,882,883,884,885,886,887,888,889,890,891,892,893,894,895,896
 897,898,899,900,901,902,903,904,905,906,907,908,909,910,911,912
 1057,1058,1059,1060,1061,1062,1063,1064,1065,1066,1067,1068,1069,1070,1071,1072
 1073,1074,1075,1076,1077,1078,1079,1080,1081,1082,1083,1084,1085,1086,1087,1088
 1089,1090,1091,1092,1093,1094,1095,1096,1097,1098,1099,1100,1101,1102,1103,1104
 1249,1250,1251,1252,1253,1254,1255,1256,1257,1258,1259,1260,1261,1262,1263,1264
 1265,1266,1267,1268,1269,1270,1271,1272,1273,1274,1275,1276,1277,1278,1279,1280
** ... 160 like lines cut
*ELSET, ELSET=RLAY3
 145,146,147,148,149,150,151,152,153,154,155,156,157,158,159,160
 161,162,163,164,165,166,167,168,169,170,171,172,173,174,175,176
 177,178,179,180,181,182,183,184,185,186,187,188,189,190,191,192
 337,338,339,340,341,342,343,344,345,346,347,348,349,350,351,352
 353,354,355,356,357,358,359,360,361,362,363,364,365,366,367,368
 369,370,371,372,373,374,375,376,377,378,379,380,381,382,383,384
 529,530,531,532,533,534,535,536,537,538,539,540,541,542,543,544
 545,546,547,548,549,550,551,552,553,554,555,556,557,558,559,560
 561,562,563,564,565,566,567,568,569,570,571,572,573,574,575,576
 721,722,723,724,725,726,727,728,729,730,731,732,733,734,735,736
 737,738,739,740,741,742,743,744,745,746,747,748,749,750,751,752
 753,754,755,756,757,758,759,760,761,762,763,764,765,766,767,768
 913,914,915,916,917,918,919,920,921,922,923,924,925,926,927,928
 929,930,931,932,933,934,935,936,937,938,939,940,941,942,943,944
 945,946,947,948,949,950,951,952,953,954,955,956,957,958,959,960
 1105,1106,1107,1108,1109,1110,1111,1112,1113,1114,1115,1116,1117,1118,1119,1120
 1121,1122,1123,1124,1125,1126,1127,1128,1129,1130,1131,1132,1133,1134,1135,1136
 1137,1138,1139,1140,1141,1142,1143,1144,1145,1146,1147,1148,1149,1150,1151,1152
 1297,1298,1299,1300,1301,1302,1303,1304,1305,1306,1307,1308,1309,1310,1311,1312
 1313,1314,1315,1316,1317,1318,1319,1320,1321,1322,1323,1324,1325,1326,1327,1328
** ... 160 like lines cut
*SOLID SECTION, ELSET=RLAY0, MATERIAL=MAT0
*SOLID SECTION, ELSET=RLAY1, MATERIAL=MAT1
*SOLID SECTION, ELSET=RLAY2, MATERIAL=MAT2
*SOLID SECTION, ELSET=RLAY3, MATERIAL=MAT3
*MATERIAL, NAME=MAT0
*ELASTIC
 5000.0, 0.450
*EXPANSION
 0.330638
*MATERIAL, NAME=MAT1
*ELASTIC
 5000.0, 0.450
*EXPANSION
 0.000000
*MATERIAL, NAME=MAT2
*ELASTIC
 5000.0, 0.450
*EXPANSION
 0.066013
*MATERIAL, NAME=MAT3
*ELASTIC
 5000.0, 0.450
*EXPANSION
 0.122926
*NSET, NSET=INNER
 1,2,3,4,5,6,7,8,9,10,11,12,13,14,15,16
 17,18,19,20,21,22,23,24,25,26,27,28,29,30,31,32
 33,34,35,36,37,38,39,40,41,42,43,44,45,46,47,48
 241,242,243,244,245,246,247,248,249,250,251,252,253,254,255,256
 257,258,259,260,261,262,263,264,265,266,267,268,269,270,271,272
 273,274,275,276,277,278,279,280,281,282,283,284,285,286,287,288
 481,482,483,484,485,486,487,488,489,490,491,492,493,494,495,496
 497,498,499,500,501,502,503,504,505,506,507,508,509,510,511,512
 513,514,515,516,517,518,519,520,521,522,523,524,525,526,527,528
 721,722,723,724,725,726,727,728,729,730,731,732,733,734,735,736
 737,738,739,740,741,742,743,744,745,746,747,748,749,750,751,752
 753,754,755,756,757,758,759,760,761,762,763,764,765,766,767,768
 961,962,963,964,965,966,967,968,969,970,971,972,973,974,975,976
 977,978,979,980,981,982,983,984,985,986,987,988,989,990,991,992
 993,994,995,996,997,998,999,1000,1001,1002,1003,1004,1005,1006,1007,1008
 1201,1202,1203,1204,1205,1206,1207,1208,1209,1210,1211,1212,1213,1214,1215,1216
 1217,1218,1219,1220,1221,1222,1223,1224,1225,1226,1227,1228,1229,1230,1231,1232
 1233,1234,1235,1236,1237,1238,1239,1240,1241,1242,1243,1244,1245,1246,1247,1248
 1441,1442,1443,1444,1445,1446,1447,1448,1449,1450,1451,1452,1453,1454,1455,1456
 1457,1458,1459,1460,1461,1462,1463,1464,1465,1466,1467,1468,1469,1470,1471,1472
** ... 163 like lines cut
*NSET, NSET=ZENDS
 1,2,3,4,5,6,7,8,9,10,11,12,13,14,15,16
 17,18,19,20,21,22,23,24,25,26,27,28,29,30,31,32
 33,34,35,36,37,38,39,40,41,42,43,44,45,46,47,48
 49,50,51,52,53,54,55,56,57,58,59,60,61,62,63,64
 65,66,67,68,69,70,71,72,73,74,75,76,77,78,79,80
 81,82,83,84,85,86,87,88,89,90,91,92,93,94,95,96
 97,98,99,100,101,102,103,104,105,106,107,108,109,110,111,112
 113,114,115,116,117,118,119,120,121,122,123,124,125,126,127,128
 129,130,131,132,133,134,135,136,137,138,139,140,141,142,143,144
 145,146,147,148,149,150,151,152,153,154,155,156,157,158,159,160
 161,162,163,164,165,166,167,168,169,170,171,172,173,174,175,176
 177,178,179,180,181,182,183,184,185,186,187,188,189,190,191,192
 193,194,195,196,197,198,199,200,201,202,203,204,205,206,207,208
 209,210,211,212,213,214,215,216,217,218,219,220,221,222,223,224
 225,226,227,228,229,230,231,232,233,234,235,236,237,238,239,240
 14401,14402,14403,14404,14405,14406,14407,14408,14409,14410,14411,14412,14413,14414,14415,14416
 14417,14418,14419,14420,14421,14422,14423,14424,14425,14426,14427,14428,14429,14430,14431,14432
 14433,14434,14435,14436,14437,14438,14439,14440,14441,14442,14443,14444,14445,14446,14447,14448
 14449,14450,14451,14452,14453,14454,14455,14456,14457,14458,14459,14460,14461,14462,14463,14464
 14465,14466,14467,14468,14469,14470,14471,14472,14473,14474,14475,14476,14477,14478,14479,14480
** ... 10 like lines cut
*NSET, NSET=ALLN
 1,2,3,4,5,6,7,8,9,10,11,12,13,14,15,16
 17,18,19,20,21,22,23,24,25,26,27,28,29,30,31,32
 33,34,35,36,37,38,39,40,41,42,43,44,45,46,47,48
 49,50,51,52,53,54,55,56,57,58,59,60,61,62,63,64
 65,66,67,68,69,70,71,72,73,74,75,76,77,78,79,80
 81,82,83,84,85,86,87,88,89,90,91,92,93,94,95,96
 97,98,99,100,101,102,103,104,105,106,107,108,109,110,111,112
 113,114,115,116,117,118,119,120,121,122,123,124,125,126,127,128
 129,130,131,132,133,134,135,136,137,138,139,140,141,142,143,144
 145,146,147,148,149,150,151,152,153,154,155,156,157,158,159,160
 161,162,163,164,165,166,167,168,169,170,171,172,173,174,175,176
 177,178,179,180,181,182,183,184,185,186,187,188,189,190,191,192
 193,194,195,196,197,198,199,200,201,202,203,204,205,206,207,208
 209,210,211,212,213,214,215,216,217,218,219,220,221,222,223,224
 225,226,227,228,229,230,231,232,233,234,235,236,237,238,239,240
 241,242,243,244,245,246,247,248,249,250,251,252,253,254,255,256
 257,258,259,260,261,262,263,264,265,266,267,268,269,270,271,272
 273,274,275,276,277,278,279,280,281,282,283,284,285,286,287,288
 289,290,291,292,293,294,295,296,297,298,299,300,301,302,303,304
 305,306,307,308,309,310,311,312,313,314,315,316,317,318,319,320
** ... 895 like lines cut
*NSET, NSET=TOP
 14401,14402,14403,14404,14405,14406,14407,14408,14409,14410,14411,14412,14413,14414,14415,14416
 14417,14418,14419,14420,14421,14422,14423,14424,14425,14426,14427,14428,14429,14430,14431,14432
 14433,14434,14435,14436,14437,14438,14439,14440,14441,14442,14443,14444,14445,14446,14447,14448
 14449,14450,14451,14452,14453,14454,14455,14456,14457,14458,14459,14460,14461,14462,14463,14464
 14465,14466,14467,14468,14469,14470,14471,14472,14473,14474,14475,14476,14477,14478,14479,14480
 14481,14482,14483,14484,14485,14486,14487,14488,14489,14490,14491,14492,14493,14494,14495,14496
 14497,14498,14499,14500,14501,14502,14503,14504,14505,14506,14507,14508,14509,14510,14511,14512
 14513,14514,14515,14516,14517,14518,14519,14520,14521,14522,14523,14524,14525,14526,14527,14528
 14529,14530,14531,14532,14533,14534,14535,14536,14537,14538,14539,14540,14541,14542,14543,14544
 14545,14546,14547,14548,14549,14550,14551,14552,14553,14554,14555,14556,14557,14558,14559,14560
 14561,14562,14563,14564,14565,14566,14567,14568,14569,14570,14571,14572,14573,14574,14575,14576
 14577,14578,14579,14580,14581,14582,14583,14584,14585,14586,14587,14588,14589,14590,14591,14592
 14593,14594,14595,14596,14597,14598,14599,14600,14601,14602,14603,14604,14605,14606,14607,14608
 14609,14610,14611,14612,14613,14614,14615,14616,14617,14618,14619,14620,14621,14622,14623,14624
 14625,14626,14627,14628,14629,14630,14631,14632,14633,14634,14635,14636,14637,14638,14639,14640
*NSET, NSET=OUTER
 193,194,195,196,197,198,199,200,201,202,203,204,205,206,207,208
 209,210,211,212,213,214,215,216,217,218,219,220,221,222,223,224
 225,226,227,228,229,230,231,232,233,234,235,236,237,238,239,240
 433,434,435,436,437,438,439,440,441,442,443,444,445,446,447,448
 449,450,451,452,453,454,455,456,457,458,459,460,461,462,463,464
 465,466,467,468,469,470,471,472,473,474,475,476,477,478,479,480
 673,674,675,676,677,678,679,680,681,682,683,684,685,686,687,688
 689,690,691,692,693,694,695,696,697,698,699,700,701,702,703,704
 705,706,707,708,709,710,711,712,713,714,715,716,717,718,719,720
 913,914,915,916,917,918,919,920,921,922,923,924,925,926,927,928
 929,930,931,932,933,934,935,936,937,938,939,940,941,942,943,944
 945,946,947,948,949,950,951,952,953,954,955,956,957,958,959,960
 1153,1154,1155,1156,1157,1158,1159,1160,1161,1162,1163,1164,1165,1166,1167,1168
 1169,1170,1171,1172,1173,1174,1175,1176,1177,1178,1179,1180,1181,1182,1183,1184
 1185,1186,1187,1188,1189,1190,1191,1192,1193,1194,1195,1196,1197,1198,1199,1200
 1393,1394,1395,1396,1397,1398,1399,1400,1401,1402,1403,1404,1405,1406,1407,1408
 1409,1410,1411,1412,1413,1414,1415,1416,1417,1418,1419,1420,1421,1422,1423,1424
 1425,1426,1427,1428,1429,1430,1431,1432,1433,1434,1435,1436,1437,1438,1439,1440
 1633,1634,1635,1636,1637,1638,1639,1640,1641,1642,1643,1644,1645,1646,1647,1648
 1649,1650,1651,1652,1653,1654,1655,1656,1657,1658,1659,1660,1661,1662,1663,1664
** ... 163 like lines cut
*NSET, NSET=ZBOT
 1,2,3,4,5,6,7,8,9,10,11,12,13,14,15,16
 17,18,19,20,21,22,23,24,25,26,27,28,29,30,31,32
 33,34,35,36,37,38,39,40,41,42,43,44,45,46,47,48
 49,50,51,52,53,54,55,56,57,58,59,60,61,62,63,64
 65,66,67,68,69,70,71,72,73,74,75,76,77,78,79,80
 81,82,83,84,85,86,87,88,89,90,91,92,93,94,95,96
 97,98,99,100,101,102,103,104,105,106,107,108,109,110,111,112
 113,114,115,116,117,118,119,120,121,122,123,124,125,126,127,128
 129,130,131,132,133,134,135,136,137,138,139,140,141,142,143,144
 145,146,147,148,149,150,151,152,153,154,155,156,157,158,159,160
 161,162,163,164,165,166,167,168,169,170,171,172,173,174,175,176
 177,178,179,180,181,182,183,184,185,186,187,188,189,190,191,192
 193,194,195,196,197,198,199,200,201,202,203,204,205,206,207,208
 209,210,211,212,213,214,215,216,217,218,219,220,221,222,223,224
 225,226,227,228,229,230,231,232,233,234,235,236,237,238,239,240
*INITIAL CONDITIONS, TYPE=TEMPERATURE
 ALLN, 0.0
*BOUNDARY
 INNER, 1, 3
 ZBOT, 3, 3
*STEP
 growth eigenstrain
*STATIC
*TEMPERATURE
 ALLN, 1.0
*OUTPUT, FIELD
*NODE OUTPUT
 U
*ELEMENT OUTPUT, POSITION=CENTROID
 S, COORD
*END STEP
*STEP
 occlusal / flow load on top of growth (held)
*STATIC
*CLOAD
 193, 1, 2
 194, 1, 2
 195, 1, 2
 196, 1, 2
 197, 1, 2
 198, 1, 2
 199, 1, 2
 200, 1, 2
 201, 1, 2
 202, 1, 2
 203, 1, 2
 204, 1, 2
 205, 1, 2
 206, 1, 2
 207, 1, 2
 208, 1, 2
 209, 1, 2
 210, 1, 2
 211, 1, 2
 212, 1, 2
** ... 2908 like lines cut
*OUTPUT, FIELD
*NODE OUTPUT
 U
*ELEMENT OUTPUT, POSITION=CENTROID
 S, COORD
*END STEP
