*HEADING
 Tier-2 parametric alveolar bone: implant + adjacent tooth coupled through bone
*NODE
 1, 0.00000, 0.00000, 0.00000
 2, 0.50000, 0.00000, 0.00000
 3, 1.00000, 0.00000, 0.00000
 4, 1.50000, 0.00000, 0.00000
 5, 2.00000, 0.00000, 0.00000
 6, 2.50000, 0.00000, 0.00000
 7, 3.00000, 0.00000, 0.00000
 8, 3.50000, 0.00000, 0.00000
 9, 4.00000, 0.00000, 0.00000
 10, 4.50000, 0.00000, 0.00000
 11, 5.00000, 0.00000, 0.00000
 12, 5.50000, 0.00000, 0.00000
 13, 6.00000, 0.00000, 0.00000
 14, 6.50000, 0.00000, 0.00000
 15, 7.00000, 0.00000, 0.00000
 16, 7.50000, 0.00000, 0.00000
 17, 8.00000, 0.00000, 0.00000
 18, 8.50000, 0.00000, 0.00000
 19, 9.00000, 0.00000, 0.00000
 20, 9.50000, 0.00000, 0.00000
** ... 20959 like lines cut
*ELEMENT, TYPE=C3D8, ELSET=BONE
 1, 1,2,39,38,778,779,816,815
 2, 2,3,40,39,779,780,817,816
 3, 3,4,41,40,780,781,818,817
 4, 4,5,42,41,781,782,819,818
 5, 5,6,43,42,782,783,820,819
 6, 6,7,44,43,783,784,821,820
 7, 7,8,45,44,784,785,822,821
 8, 8,9,46,45,785,786,823,822
 9, 9,10,47,46,786,787,824,823
 10, 10,11,48,47,787,788,825,824
 11, 11,12,49,48,788,789,826,825
 12, 12,13,50,49,789,790,827,826
 13, 13,14,51,50,790,791,828,827
 14, 14,15,52,51,791,792,829,828
 15, 15,16,53,52,792,793,830,829
 16, 16,17,54,53,793,794,831,830
 17, 17,18,55,54,794,795,832,831
 18, 18,19,56,55,795,796,833,832
 19, 19,20,57,56,796,797,834,833
 20, 20,21,58,57,797,798,835,834
** ... 11660 like lines cut
*ELEMENT, TYPE=C3D8, ELSET=TI
 225, 231,232,269,268,1008,1009,1046,1045
 226, 232,233,270,269,1009,1010,1047,1046
 227, 233,234,271,270,1010,1011,1048,1047
 228, 234,235,272,271,1011,1012,1049,1048
 260, 267,268,305,304,1044,1045,1082,1081
 261, 268,269,306,305,1045,1046,1083,1082
 262, 269,270,307,306,1046,1047,1084,1083
 263, 270,271,308,307,1047,1048,1085,1084
 264, 271,272,309,308,1048,1049,1086,1085
 265, 272,273,310,309,1049,1050,1087,1086
 295, 303,304,341,340,1080,1081,1118,1117
 296, 304,305,342,341,1081,1082,1119,1118
 297, 305,306,343,342,1082,1083,1120,1119
 298, 306,307,344,343,1083,1084,1121,1120
 299, 307,308,345,344,1084,1085,1122,1121
 300, 308,309,346,345,1085,1086,1123,1122
 301, 309,310,347,346,1086,1087,1124,1123
 302, 310,311,348,347,1087,1088,1125,1124
 331, 340,341,378,377,1117,1118,1155,1154
 332, 341,342,379,378,1118,1119,1156,1155
** ... 1332 like lines cut
*ELEMENT, TYPE=C3D8, ELSET=DENTIN
 4525, 4872,4873,4910,4909,5649,5650,5687,5686
 4526, 4873,4874,4911,4910,5650,5651,5688,5687
 4527, 4874,4875,4912,4911,5651,5652,5689,5688
 4528, 4875,4876,4913,4912,5652,5653,5690,5689
 4559, 4907,4908,4945,4944,5684,5685,5722,5721
 4560, 4908,4909,4946,4945,5685,5686,5723,5722
 4561, 4909,4910,4947,4946,5686,5687,5724,5723
 4562, 4910,4911,4948,4947,5687,5688,5725,5724
 4563, 4911,4912,4949,4948,5688,5689,5726,5725
 4564, 4912,4913,4950,4949,5689,5690,5727,5726
 4565, 4913,4914,4951,4950,5690,5691,5728,5727
 4566, 4914,4915,4952,4951,5691,5692,5729,5728
 4595, 4944,4945,4982,4981,5721,5722,5759,5758
 4596, 4945,4946,4983,4982,5722,5723,5760,5759
 4597, 4946,4947,4984,4983,5723,5724,5761,5760
 4598, 4947,4948,4985,4984,5724,5725,5762,5761
 4599, 4948,4949,4986,4985,5725,5726,5763,5762
 4600, 4949,4950,4987,4986,5726,5727,5764,5763
 4601, 4950,4951,4988,4987,5727,5728,5765,5764
 4602, 4951,4952,4989,4988,5728,5729,5766,5765
** ... 1580 like lines cut
*ELEMENT, TYPE=C3D8, ELSET=PDL
 4489, 4835,4836,4873,4872,5612,5613,5650,5649
 4490, 4836,4837,4874,4873,5613,5614,5651,5650
 4491, 4837,4838,4875,4874,5614,5615,5652,5651
 4492, 4838,4839,4876,4875,5615,5616,5653,5652
 4523, 4870,4871,4908,4907,5647,5648,5685,5684
 4524, 4871,4872,4909,4908,5648,5649,5686,5685
 4529, 4876,4877,4914,4913,5653,5654,5691,5690
 4530, 4877,4878,4915,4914,5654,5655,5692,5691
 4558, 4906,4907,4944,4943,5683,5684,5721,5720
 4567, 4915,4916,4953,4952,5692,5693,5730,5729
 4594, 4943,4944,4981,4980,5720,5721,5758,5757
 4603, 4952,4953,4990,4989,5729,5730,5767,5766
 4629, 4979,4980,5017,5016,5756,5757,5794,5793
 4640, 4990,4991,5028,5027,5767,5768,5805,5804
 4665, 5016,5017,5054,5053,5793,5794,5831,5830
 4676, 5027,5028,5065,5064,5804,5805,5842,5841
 4701, 5053,5054,5091,5090,5830,5831,5868,5867
 4712, 5064,5065,5102,5101,5841,5842,5879,5878
 4737, 5090,5091,5128,5127,5867,5868,5905,5904
 4748, 5101,5102,5139,5138,5878,5879,5916,5915
** ... 300 like lines cut
*ELEMENT, TYPE=C3D8, ELSET=BIOFILM
 11689, 12605,12606,12643,12642,13382,13383,13420,13419
 11690, 12606,12607,12644,12643,13383,13384,13421,13420
 11691, 12607,12608,12645,12644,13384,13385,13422,13421
 11692, 12608,12609,12646,12645,13385,13386,13423,13422
 11709, 12626,12627,12664,12663,13403,13404,13441,13440
 11710, 12627,12628,12665,12664,13404,13405,13442,13441
 11711, 12628,12629,12666,12665,13405,13406,13443,13442
 11712, 12629,12630,12667,12666,13406,13407,13444,13443
 11723, 12640,12641,12678,12677,13417,13418,13455,13454
 11724, 12641,12642,12679,12678,13418,13419,13456,13455
 11729, 12646,12647,12684,12683,13423,13424,13461,13460
 11730, 12647,12648,12685,12684,13424,13425,13462,13461
 11743, 12661,12662,12699,12698,13438,13439,13476,13475
 11744, 12662,12663,12700,12699,13439,13440,13477,13476
 11749, 12667,12668,12705,12704,13444,13445,13482,13481
 11750, 12668,12669,12706,12705,13445,13446,13483,13482
 11758, 12676,12677,12714,12713,13453,13454,13491,13490
 11767, 12685,12686,12723,12722,13462,13463,13500,13499
 11779, 12698,12699,12736,12735,13475,13476,13513,13512
 11786, 12705,12706,12743,12742,13482,13483,13520,13519
** ... 340 like lines cut
*SOLID SECTION, ELSET=BONE, MATERIAL=BONE
*MATERIAL, NAME=BONE
*ELASTIC
 13700.0, 0.300
*SOLID SECTION, ELSET=TI, MATERIAL=TI
*MATERIAL, NAME=TI
*ELASTIC
 110000.0, 0.340
*SOLID SECTION, ELSET=DENTIN, MATERIAL=DENTIN
*MATERIAL, NAME=DENTIN
*ELASTIC
 18000.0, 0.310
*SOLID SECTION, ELSET=PDL, MATERIAL=PDL
*MATERIAL, NAME=PDL
*ELASTIC
 50.0, 0.450
*SOLID SECTION, ELSET=BIOFILM, MATERIAL=BIOFILM
*MATERIAL, NAME=BIOFILM
*ELASTIC
 1.0, 0.450
*EXPANSION
 0.190000
*NSET, NSET=FIXED
 1,2,3,4,5,6,7,8,9,10,11,12,13,14,15,16
 17,18,19,20,21,22,23,24,25,26,27,28,29,30,31,32
 33,34,35,36,37,38,39,40,41,42,43,44,45,46,47,48
 49,50,51,52,53,54,55,56,57,58,59,60,61,62,63,64
 65,66,67,68,69,70,71,72,73,74,75,76,77,78,79,80
 81,82,83,84,85,86,87,88,89,90,91,92,93,94,95,96
 97,98,99,100,101,102,103,104,105,106,107,108,109,110,111,112
 113,114,115,116,117,118,119,120,121,122,123,124,125,126,127,128
 129,130,131,132,133,134,135,136,137,138,139,140,141,142,143,144
 145,146,147,148,149,150,151,152,153,154,155,156,157,158,159,160
 161,162,163,164,165,166,167,168,169,170,171,172,173,174,175,176
 177,178,179,180,181,182,183,184,185,186,187,188,189,190,191,192
 193,194,195,196,197,198,199,200,201,202,203,204,205,206,207,208
 209,210,211,212,213,214,215,216,217,218,219,220,221,222,223,224
 225,226,227,228,229,230,231,232,233,234,235,236,237,238,239,240
 241,242,243,244,245,246,247,248,249,250,251,252,253,254,255,256
 257,258,259,260,261,262,263,264,265,266,267,268,269,270,271,272
 273,274,275,276,277,278,279,280,281,282,283,284,285,286,287,288
 289,290,291,292,293,294,295,296,297,298,299,300,301,302,303,304
 305,306,307,308,309,310,311,312,313,314,315,316,317,318,319,320
** ... 162 like lines cut
*NSET, NSET=IMPTOP
 20470,20471,20472,20473,20474,20506,20507,20508,20509,20510,20511,20512,20543,20544,20545,20546
 20547,20548,20549,20580,20581,20582,20583,20584,20585,20586,20617,20618,20619,20620,20621,20622
 20623,20654,20655,20656,20657,20658,20659,20660,20692,20693,20694,20695,20696
*NSET, NSET=TOOTOP
 20449,20450,20451,20452,20453,20485,20486,20487,20488,20489,20490,20491,20521,20522,20523,20524
 20525,20526,20527,20528,20529,20558,20559,20560,20561,20562,20563,20564,20565,20566,20595,20596
 20597,20598,20599,20600,20601,20602,20603,20632,20633,20634,20635,20636,20637,20638,20639,20640
 20669,20670,20671,20672,20673,20674,20675,20676,20677,20707,20708,20709,20710,20711,20712,20713
 20745,20746,20747,20748,20749
*NSET, NSET=ALLN
 1,2,3,4,5,6,7,8,9,10,11,12,13,14,15,16
 17,18,19,20,21,22,23,24,25,26,27,28,29,30,31,32
 33,34,35,36,37,38,39,40,41,42,43,44,45,46,47,48
 49,50,51,52,53,54,55,56,57,58,59,60,61,62,63,64
 65,66,67,68,69,70,71,72,73,74,75,76,77,78,79,80
 81,82,83,84,85,86,87,88,89,90,91,92,93,94,95,96
 97,98,99,100,101,102,103,104,105,106,107,108,109,110,111,112
 113,114,115,116,117,118,119,120,121,122,123,124,125,126,127,128
 129,130,131,132,133,134,135,136,137,138,139,140,141,142,143,144
 145,146,147,148,149,150,151,152,153,154,155,156,157,158,159,160
 161,162,163,164,165,166,167,168,169,170,171,172,173,174,175,176
 177,178,179,180,181,182,183,184,185,186,187,188,189,190,191,192
 193,194,195,196,197,198,199,200,201,202,203,204,205,206,207,208
 209,210,211,212,213,214,215,216,217,218,219,220,221,222,223,224
 225,226,227,228,229,230,231,232,233,234,235,236,237,238,239,240
 241,242,243,244,245,246,247,248,249,250,251,252,253,254,255,256
 257,258,259,260,261,262,263,264,265,266,267,268,269,270,271,272
 273,274,275,276,277,278,279,280,281,282,283,284,285,286,287,288
 289,290,291,292,293,294,295,296,297,298,299,300,301,302,303,304
 305,306,307,308,309,310,311,312,313,314,315,316,317,318,319,320
** ... 1292 like lines cut
*INITIAL CONDITIONS, TYPE=TEMPERATURE
 ALLN, 0.0
*BOUNDARY
 FIXED, 1, 3
*STEP
 1) dysbiotic biofilm growth
*STATIC
*TEMPERATURE
 ALLN, 1.0
*OUTPUT, FIELD
*NODE OUTPUT
 U
*ELEMENT OUTPUT, POSITION=CENTROID
 S, COORD
*END STEP
*STEP
 2) occlusal (masticatory) load on both crowns -> coupled through bone
*STATIC
*CLOAD
 20470, 3, -50.0
 20470, 1, 10.0
 20471, 3, -50.0
 20471, 1, 10.0
 20472, 3, -50.0
 20472, 1, 10.0
 20473, 3, -50.0
 20473, 1, 10.0
 20474, 3, -50.0
 20474, 1, 10.0
 20506, 3, -50.0
 20506, 1, 10.0
 20507, 3, -50.0
 20507, 1, 10.0
 20508, 3, -50.0
 20508, 1, 10.0
 20509, 3, -50.0
 20509, 1, 10.0
 20510, 3, -50.0
 20510, 1, 10.0
** ... 208 like lines cut
*OUTPUT, FIELD
*NODE OUTPUT
 U
*ELEMENT OUTPUT, POSITION=CENTROID
 S, COORD
*END STEP
